Version 4
SHEET 1 1064 680
WIRE 816 -368 688 -368
WIRE 960 -368 896 -368
WIRE 528 -272 448 -272
WIRE 688 -272 688 -368
WIRE 688 -272 608 -272
WIRE 80 -192 80 -256
WIRE 80 -192 -112 -192
WIRE 688 -176 688 -272
WIRE 720 -176 688 -176
WIRE 448 -160 448 -272
WIRE 960 -160 960 -368
WIRE 960 -160 784 -160
WIRE 992 -160 960 -160
WIRE -112 -144 -112 -192
WIRE 80 -144 80 -192
WIRE 720 -144 688 -144
WIRE 448 -16 448 -80
WIRE 688 -16 688 -144
WIRE 688 -16 448 -16
WIRE 448 16 448 -16
FLAG 448 16 0
FLAG -112 -144 0
FLAG 80 -336 v+
FLAG 80 -64 v-
FLAG 752 -128 v-
FLAG 752 -192 v+
FLAG 448 -272 Vin
FLAG 992 -160 Vout
SYMBOL voltage 448 -176 R0
WINDOW 123 0 0 Left 0
WINDOW 39 0 0 Left 0
SYMATTR InstName V1
SYMATTR Value SINE(0 100m 100)
SYMBOL voltage 80 -352 R0
WINDOW 123 0 0 Left 0
WINDOW 39 0 0 Left 0
SYMATTR InstName V2
SYMATTR Value 10
SYMBOL voltage 80 -160 R0
WINDOW 123 0 0 Left 0
WINDOW 39 0 0 Left 0
SYMATTR InstName V3
SYMATTR Value 10
SYMBOL res 624 -288 R90
WINDOW 0 0 56 VBottom 2
WINDOW 3 32 56 VTop 2
SYMATTR InstName R1
SYMATTR Value {R1}
SYMBOL res 912 -384 R90
WINDOW 0 0 56 VBottom 2
WINDOW 3 32 56 VTop 2
SYMATTR InstName R2
SYMATTR Value {R2}
SYMBOL OpAmps\\OP07 752 -224 R0
SYMATTR InstName U1
TEXT 160 56 Left 2 !.tran 100m\n.param R1 = 10k\n.param R2 = 50k
TEXT 160 168 Left 2 !.meas tran Vout MAX V(vout)\n.meas tran Vin MAX V(vin)\n.meas tran Gain param Vout/Vin
